Results/hp-now/powerflow/line_summaries.csv
,active_line_losses_mw,reactive_line_losses_mvar,apparent_line_losses_mva
0,0.05120603366382258,-0.4117709428662983,0.4756598146218133
1,0.043292683649747185,-0.41825428234907247,0.46986619476239955
2,0.04252565912379819,-0.41891430611172,0.4692850495719794
3,0.04099331465190188,-0.42024554086599036,0.46826558470174706
4,0.03971812415827198,-0.42134481179483535,0.46746685575101965
5,0.03820769299077527,-0.42260007718323084,0.4664587393014554
6,0.03925298066380791,-0.4217127242534041,0.46724620950455326
7,0.043225965121469714,-0.4184497508603896,0.4701282848546505
8,0.043351264992043795,-0.4183760334039501,0.4702404974263863
9,0.04519271321678761,-0.416830579330602,0.4716011544746789
10,0.05373718254990032,-0.40985216828318805,0.47779980171326814
11,0.056647027314851585,-0.4074370631669135,0.47985887020107704
12,0.0615404225831848,-0.4035097988889056,0.48355140052878226
13,0.0587902840179054,-0.4056655149488244,0.48141478819130973
14,0.06061507113331312,-0.4041582960474445,0.4826530494906529
15,0.06433345352040623,-0.40120401862698196,0.4855523700149383
16,0.06961880133726724,-0.3970333633421087,0.48991695803581925
17,0.07466008840533302,-0.3930729010399409,0.4938589726558037
18,0.06808121631665609,-0.39825926852395527,0.48848651104675156
19,0.06968457349895726,-0.39695107641146704,0.48975997022332696
20,0.0721477688676552,-0.3950059337003469,0.4916976498894053
21,0.06708800413705883,-0.3990756491235098,0.487917936804625
22,0.05946979555418931,-0.405136937451441,0.48195379723557863
23,0.050863970497732766,-0.4121260212831004,0.47561960518010826
24,0.04569147596994254,-0.4163663787116956,0.4719399843655626
25,0.042053711675586844,-0.41934353200956165,0.46928322920796645
26,0.03717159844410902,-0.423449868636581,0.4659469151140932
27,0.03715632619592931,-0.42342915319521024,0.46582057701273966
28,0.04082777211844705,-0.42035991016991775,0.4685140084502445
29,0.043111412142102824,-0.4184983774688993,0.4700185987646242
30,0.05325072914619552,-0.41014630101475047,0.47729916821858953
31,0.06310829594191322,-0.40217208588235864,0.4846631944351926
32,0.06169007296467864,-0.40329320516277,0.4835119791404442
33,0.06946026238766141,-0.3971890019979131,0.4897813581438898
34,0.06632936556099459,-0.39964653132495603,0.4871302869545382
35,0.06580795146427845,-0.4000623680552643,0.48672384979920946
36,0.06893104730014897,-0.3976595788959236,0.4892829368267653
37,0.07042622572965719,-0.39644931667892735,0.4902467603617583
38,0.06897380346171586,-0.3976118461575716,0.4893068684665518
39,0.0717419506378392,-0.3953209835483247,0.4911984621476241
40,0.08246020325185292,-0.3867208866188696,0.49950764882942433
41,0.08415671833164316,-0.3853472858932897,0.5006334164305853
42,0.08120952180589178,-0.3877722732370275,0.4983792016012985
43,0.08116124529137284,-0.387709820234821,0.4979942214690456
44,0.08777503494615897,-0.38257723440553754,0.5035942328644809
45,0.0809771536855269,-0.3878560886176346,0.4979321047678532
46,0.07144766660883704,-0.39535621124944076,0.4903984269192896
47,0.06215923313694202,-0.4028135426512312,0.4834315427746539
48,0.05662264723829772,-0.4073151786470482,0.4794719955109253
49,0.049999316093432764,-0.4126903595365845,0.4745269582928367
50,0.05015196247573367,-0.4125992414872375,0.47462623675859533
51,0.04764940942123318,-0.4146506477797112,0.472869495823631
52,0.048454042691793035,-0.41397260084210175,0.47348145867274993
53,0.05035915630146533,-0.41243452644289735,0.4747843347031197
54,0.062276478621559384,-0.4027949455809252,0.4837916772362832
55,0.0770785768113377,-0.39100178688847836,0.49537699679615577
56,0.07468110417057772,-0.3929763955311388,0.49379120703134
57,0.07268493106545461,-0.39458250955956686,0.49231370919216366
58,0.0709943662933141,-0.3959316582536247,0.490781079580062
59,0.06892253125528996,-0.39747215989596235,0.48901429808072044
60,0.06708761423088218,-0.39899593670108546,0.48785821485898334
61,0.0634091838195237,-0.4018559847445511,0.4847252785419215
62,0.06571227511122885,-0.4000240007851449,0.48639159066326737
63,0.0737321983812413,-0.39370036066408365,0.49273552558270545
64,0.08172813694759935,-0.3873043118447794,0.49873092721326706
65,0.08750297108759678,-0.38278487286248103,0.5033440561117453
66,0.085481878330735,-0.38452676848860723,0.5018222627776189
67,0.08220812749444247,-0.3870495255061798,0.49924125413820786
68,0.08334893857257991,-0.38614218336471906,0.5001455752824643
69,0.07876505168012393,-0.38974989530541476,0.496461270990994
70,0.0694453913421208,-0.39714925686650676,0.4893295338949972
71,0.06195923839131079,-0.40310107253858524,0.48353139408297424
72,0.055182883146801406,-0.4085034334693812,0.4783331127820646
73,0.04801331965059272,-0.4143478376012882,0.473079808626205
74,0.047502674910002915,-0.4147143262352123,0.47265429914876084
75,0.04417121043757947,-0.4174545803634544,0.47022680826669994
76,0.04529207646158258,-0.4165322788536742,0.47093950688763664
77,0.05031907629959619,-0.4124400212104981,0.4746602672330861
78,0.061949737838862026,-0.403133967163296,0.4835466561963189
79,0.07807804155203218,-0.3903014277040757,0.4961867473541472
80,0.07669539411631618,-0.39132472350124703,0.49494120967582195
81,0.07351247004418184,-0.3938657238458752,0.4928844287220111
82,0.0787539667652134,-0.389826522673361,0.49714051974036866
83,0.07276541697430527,-0.3945785836379221,0.4922944698852137
84,0.06854232437276082,-0.3978151066365086,0.4887239424453643
85,0.06527711180773599,-0.4003737761245074,0.48623947716990773
86,0.07066592533189266,-0.39614941094570566,0.4904741150054808
87,0.07900259199285117,-0.38959044000991533,0.49710515130834604
88,0.08512681101492157,-0.3846707911570536,0.5016783601350634
89,0.09520612640343523,-0.3769222441656805,0.5101062641702819
90,0.08785806324827239,-0.38260553014784066,0.5038289930146101
91,0.08010206080535899,-0.388591400617112,0.49713387178886875
92,0.08136777444644332,-0.38760115467361494,0.4981683097495505
93,0.07690985692523632,-0.391135572239939,0.49465957013320133
94,0.07204521269450587,-0.39506101007987815,0.49093208135121535
95,0.06192479762488627,-0.40313394439771394,0.4832283851181938
96,0.05308917713833474,-0.41025515507573396,0.4767514650578062
97,0.049078510560651815,-0.4135043306341656,0.4739177755272985
98,0.04635034696726736,-0.41577991013496723,0.47185477566994233
99,0.04409831398626657,-0.4176343660412144,0.4702632024263809
100,0.04442224882348911,-0.4173389581888954,0.4704703713765984
101,0.050268750326705317,-0.41258750035205255,0.4748009526844362
102,0.06086397569798496,-0.4040054417110292,0.48265953379078164
103,0.07405040731577442,-0.3934115496684779,0.49275227086490864
104,0.07620118360738923,-0.39175314366071257,0.49462279051301683
105,0.06944672039196902,-0.397078897473926,0.4895626112799168
106,0.06842321749214948,-0.3978063666420903,0.48876498116823924
107,0.07136173882198005,-0.3954790741658964,0.490945628773165
108,0.06727432262800723,-0.3987016160893749,0.4875763473296158
109,0.07339138575800988,-0.3939422799252327,0.49250933954677056
110,0.07951699555932051,-0.38905204446921954,0.49731422564477124
111,0.08045143589463354,-0.38827273228994164,0.49789814002436583
112,0.08956141273245713,-0.38116918856958737,0.5052108904734673
113,0.08973420060695463,-0.3810063325155394,0.5051062561938294
114,0.08457367625075277,-0.3849866555736507,0.5006499529395124
115,0.08430513472536828,-0.3851035753812148,0.5002078569803767
116,0.08123528247897756,-0.38761259401713255,0.49783988834807136
117,0.0751854008102057,-0.3924500385845034,0.493286563140664
118,0.07264152529926396,-0.39454981771300607,0.49159386419612394
119,0.07018826061511932,-0.39651217810285905,0.48981319006955176
120,0.055649982428474035,-0.40807542331441815,0.4784480434814683
121,0.05399512674782193,-0.4095391234803865,0.4775118013662238
122,0.052151073364742076,-0.41094923665066957,0.4760666094223817
123,0.05135441723208933,-0.4116334354274448,0.4755565890375094
124,0.05035598691132083,-0.4124493237535488,0.4747583282049208
125,0.05353668394096334,-0.40990342609175334,0.4771712648833038
126,0.05838044238597707,-0.4059681381602427,0.4808113427768819
127,0.06293924721123632,-0.40236715589997984,0.48422506808217536
128,0.06600799158953867,-0.39986763852702645,0.48649662635894114
129,0.07151281831676763,-0.3954797375793363,0.49076486100043043
130,0.08326768305641079,-0.3862231885965077,0.5001798383203765
131,0.08647260036810846,-0.3835473186514778,0.5022935596913842
132,0.09274182918662291,-0.37869667656962713,0.5075339943652579
133,0.08698662913509253,-0.3831889191012932,0.5028551118970924
134,0.0781509573843217,-0.3900601766226352,0.4954736756254508
135,0.08727193168921289,-0.3829960495060247,0.5032233238592264
136,0.09340564594457819,-0.37813859789420057,0.5080939613732445
137,0.09553933678167133,-0.37646035083280305,0.509657532397311
138,0.09433843578407905,-0.3773111302705266,0.508129726371746
139,0.09171244049812718,-0.37931816855497263,0.5060822131188117
140,0.08787550475178778,-0.38246446322670274,0.5033644179899185
141,0.0859150039669583,-0.3839341332986515,0.5016291341180489
142,0.08212781212466891,-0.38692415518577183,0.4987406186782775
143,0.07690743387231067,-0.39107526977389584,0.49471063376665897
144,0.07402757520760074,-0.3933949405499402,0.4925646402324125
145,0.06912068289252242,-0.397293704295225,0.4888028200222168
146,0.06902822631191786,-0.39740946719540393,0.48898809395306764
147,0.06345171572044407,-0.4017712866151762,0.4844076459903533
148,0.06536054612308499,-0.4002558769859766,0.4858962788170343
149,0.06873884785094439,-0.3976220960269483,0.4887118144414141
150,0.07059554622904811,-0.396078670362144,0.4899535501529828
151,0.07557204550499445,-0.39214073792124465,0.49383404507171336
152,0.08442984534696311,-0.3852518908453274,0.5011524793582844
153,0.08935815119726748,-0.3812994552783832,0.5048292988804481
154,0.09879976075643172,-0.3739455926669036,0.5125187102082427
155,0.09946361525995345,-0.3733749197964459,0.5127968362736708
156,0.10176175969016404,-0.3716469491065434,0.5149264256377646
157,0.10524813673258535,-0.368963413006984,0.5179942578174958
158,0.10430785129961372,-0.369702154466064,0.5172715144942973
159,0.10210046873780729,-0.37135549738301626,0.5152252086739183
160,0.10187351199894944,-0.37148445102382394,0.5147040750444637
161,0.10556206114425337,-0.36870695644353313,0.5179333832650563
162,0.10339447612978805,-0.37024191143931445,0.5156621123943259
163,0.10197488643693478,-0.3714442976874054,0.5146829711000345
164,0.10376414251094242,-0.3701733854382717,0.5167150598460104
165,0.09208769538733934,-0.37928608532144364,0.5072115405062272
166,0.07839006584360761,-0.3899603053288173,0.49596275048625393
167,0.06845870373233201,-0.3978116949071758,0.4881997608202056
168,0.062320859369515244,-0.4028347412318889,0.4839092305489647
169,0.05656561207259465,-0.4074906953550897,0.479605974627666
170,0.055144782667569475,-0.40864044038047853,0.4786206076442646
171,0.054581386766257865,-0.4090549058978742,0.4781184861703654
172,0.053495506991270536,-0.4098692788536563,0.4770470757757889
173,0.05716474069911052,-0.40699726697304867,0.4800412846181444
174,0.06940707667335087,-0.3972048696612611,0.48953960789796075
175,0.0850902503163378,-0.38479843100424027,0.5019194500781128
176,0.0891532302910334,-0.38161742025845813,0.5053531688856971
177,0.08241884135222072,-0.38695723603173826,0.49995395995308506
178,0.08425123078853175,-0.38560721223068367,0.5015009914856893
179,0.07453176548456185,-0.39314124082248303,0.4933119107999281
180,0.06895956553341254,-0.39744822519963036,0.4890312491937158
181,0.06305220500881398,-0.4021249508543416,0.4846255332521267
182,0.06935430622906899,-0.39713009665629173,0.4893027869804356
183,0.07681729688511707,-0.39112444400012575,0.4948859482927287
184,0.09407007851226218,-0.3776106498234425,0.5088315121987376
185,0.09884335042875307,-0.3739172906993104,0.5126652710001625
186,0.09142304983207049,-0.3795581962986341,0.5058751668231735
187,0.09762732907926473,-0.3747035872832459,0.5107771760161739
188,0.09521440061395134,-0.3766418325371051,0.5090713742549802
189,0.09607636329803569,-0.37593111502340265,0.5097813776733886
190,0.08749461999035345,-0.38271879096463096,0.5031047269554744
191,0.07666040870659738,-0.3913331748638511,0.49466660992373507
192,0.06616987075862957,-0.399699897024013,0.4866760395422109
193,0.06718469767814125,-0.3988750700816965,0.4876947168575073
194,0.06602120502034507,-0.39985389287536355,0.4868579943831496
195,0.05978997686890755,-0.40477991067349994,0.4817634953029222
196,0.05971303576030941,-0.40489284563623085,0.48183557216906087
197,0.06582123342459137,-0.39997193488974275,0.48650449228038256
198,0.08012076695234359,-0.38859170191204556,0.4976668727005665
199,0.093878936158566,-0.37784036525536574,0.5089177469955354
...
